24
Caffeine optimized with MMFF94
O          0.45700        2.55200        0.00100
O         -3.09100       -0.41900        0.00100
N         -0.96000       -1.28700        0.00000
N          2.22000        0.13300        0.00000
N         -1.34000        1.07800        0.00000
N          1.39400       -1.93200        0.00100
C          0.86100        0.26200        0.00000
C          0.38700       -1.01500        0.00000
C          0.01900        1.40600        0.00000
C         -1.87100       -0.23000        0.00000
C          2.49600       -1.20900        0.00100
C         -1.42200       -2.66300        0.00100
C          3.18700        1.20200        0.00000
C         -2.30300        2.16200        0.00000
H          3.50500       -1.60200        0.00100
H         -1.04300       -3.16800       -0.89300
H         -2.51400       -2.72700        0.00100
H         -1.04300       -3.16800        0.89500
H          4.19500        0.78100        0.00000
H          3.03900        1.80500       -0.89900
H          3.03900        1.80400        0.90000
H         -1.82800        3.14600       -0.00100
H         -2.93600        2.07500        0.89000
H         -2.93800        2.07400       -0.88700
